prefix=/home/bmy/GC/git_repos/GEOS-Chem-Libraries/src/../opt/ifort/nc4
exec_prefix=${prefix}
libdir=${exec_prefix}/lib
includedir=${prefix}/include
ccompiler=icc
cppcompiler=@CXX@
fcompiler=@FC@
fflags=@FFLAGS@ -I${includedir}
flibs=@NC_FLIBS@

Name: netcdf
Description: NetCDF Client Library
Version: 4.2
Libs: -L${libdir} -L/home/bmy/GC/git_repos/GEOS-Chem-Libraries/src/../opt/ifort/nc4/lib -lnetcdf -lhdf5_hl -lhdf5 -lm -lz 
Cflags: -I${includedir}

