README -- describes how to use GEOS-Chem-Libraries package
22 May 2012
GEOS-Chem Support Team
geos-chem-support@as.harvard.edu


For complete installation instructions, please see our wiki page:

http://wiki.seas.harvard.edu/geos-chem/index.php/Installing_libraries_for_GEOS-Chem


