#------------------------------------------------------------------------------
#          Harvard University Atmospheric Chemistry Modeling Group            !
#------------------------------------------------------------------------------
#BOI
# !TITLE: Libraries for GEOS-Chem (netCDF-3, netCDF-4, HDF5, Zlib)
# !AUTHORS: Bob Yantosca
# !AFFILIATION: GEOS-Chem Support Team
# !DATE: 26 April 2012
#EOI
#------------------------------------------------------------------------------
